REMARK  5 active torsions:
REMARK  status: ('A' for Active; 'I' for Inactive)
REMARK    1  A    between atoms: C1_3180  and  C2_3181 
REMARK    2  A    between atoms: C5_3184  and  N5_3191 
REMARK    3  A    between atoms: C6_3185  and  C7_3186 
REMARK    4  A    between atoms: C7_3186  and  C8_3187 
REMARK    5  A    between atoms: C8_3187  and  C9_3188 
REMARK       I    between atoms: C10_3189  and  N5_3191 
ROOT
HETATM    1  C2  DAN     0      24.214  18.827  63.999  1.00 19.42     0.157 C 
HETATM    2  C3  DAN     0      23.603  17.661  63.622  1.00 21.90     0.039 C 
HETATM    3  C4  DAN     0      24.254  16.626  62.651  1.00 20.25     0.201 C 
HETATM    4  C5  DAN     0      25.779  16.763  62.641  1.00 21.47     0.171 C 
HETATM    5  C6  DAN     0      26.159  18.285  62.525  1.00 22.66     0.180 C 
HETATM    6  O4  DAN     0      23.919  15.318  63.033  1.00 20.51    -0.216 OA
HETATM    7  O6  DAN     0      25.533  19.052  63.617  1.00 23.59    -0.323 OA
ENDROOT
BRANCH   5   8
HETATM    8  C7  DAN     0      27.708  18.504  62.643  1.00 21.93     0.214 C 
HETATM    9  O7  DAN     0      28.237  18.102  63.905  1.00 23.01    -0.218 OA
BRANCH   8  10
HETATM   10  C8  DAN     0      28.051  19.944  62.481  1.00 22.43     0.218 C 
HETATM   11  O8  DAN     0      27.774  20.310  61.171  1.00 25.96    -0.218 OA
BRANCH  10  12
HETATM   12  C9  DAN     0      29.530  20.211  62.808  1.00 23.00     0.218 C 
HETATM   13  O9  DAN     0      30.397  19.533  61.895  1.00 23.06    -0.218 OA
ENDBRANCH  10  12
ENDBRANCH   8  10
ENDBRANCH   5   8
BRANCH   4  14
HETATM   14  N5  DAN     0      26.317  16.011  61.492  1.00 18.80    -0.234 NA
HETATM   15  C10 DAN     0      27.081  14.933  61.647  1.00 17.84     0.252 C 
HETATM   16  C11 DAN     0      27.584  14.206  60.419  1.00 13.79     0.100 C 
HETATM   17  O10 DAN     0      27.399  14.499  62.749  1.00 20.24    -0.271 OA
ENDBRANCH   4  14
BRANCH   1  18
HETATM   18  C1  DAN     0      23.590  19.817  64.751  1.00 20.59     0.234 C 
HETATM   19  O1B DAN     0      22.453  19.628  65.226  1.00 21.26    -0.642 OA
HETATM   20  O1A DAN     0      24.194  20.892  64.942  1.00 19.31    -0.642 OA
ENDBRANCH   1  18
TORSDOF 6
